@<TRIPOS>MOLECULE
dih2o.xyz
 6 4 0 0 0
SMALL
GASTEIGER

@<TRIPOS>ATOM
      1 O          -3.5518    1.7806   -1.0283 O.3     1  HOH1       -0.4105
      2 H          -3.4141    2.1848   -1.8769 H       0  HOH0        0.2052
      3 H          -2.8747    2.0784   -0.4318 H       0  HOH0        0.2052
      4 O          -1.1073    3.5738   -1.7063 O.3     2  HOH2       -0.4105
      5 H          -1.0513    4.5125   -1.8422 H       0  HOH0        0.2052
      6 H          -0.2507    3.1844   -1.8401 H       0  HOH0        0.2052
@<TRIPOS>BOND
     1     2     1    1
     2     5     4    1
     3     6     4    1
     4     1     3    1
